/*--------------------------------*- C++ -*----------------------------------*\
| =========                 |                                                 |
| \\      /  F ield         | OpenFOAM: The Open Source CFD Toolbox           |
|  \\    /   O peration     | Version:  2406                                  |
|   \\  /    A nd           | Website:  www.openfoam.com                      |
|    \\/     M anipulation  |                                                 |
\*---------------------------------------------------------------------------*/
FoamFile
{
    version     2.0;
    format      binary;
    arch        "LSB;label=32;scalar=64";
    class       polyBoundaryMesh;
    location    "constant/polyMesh";
    object      boundary;
}
// * * * * * * * * * * * * * * * * * * * * * * * * * * * * * * * * * * * * * //

6
(
    axis
    {
        type            empty;
        inGroups        1(empty);
        nFaces          0;
        startFace       41031;
    }
    inlet
    {
        type            patch;
        nFaces          30;
        startFace       41031;
    }
    walls
    {
        type            wall;
        inGroups        1(wall);
        nFaces          70;
        startFace       41061;
    }
    atmosphere
    {
        type            patch;
        nFaces          175;
        startFace       41131;
    }
    front
    {
        type            wedge;
        inGroups        1(wedge);
        nFaces          20603;
        startFace       41306;
    }
    back
    {
        type            wedge;
        inGroups        1(wedge);
        nFaces          20603;
        startFace       61909;
    }
)

// ************************************************************************* //
