/*--------------------------------*- C++ -*----------------------------------*\
| =========                 |                                                 |
| \\      /  F ield         | OpenFOAM: The Open Source CFD Toolbox           |
|  \\    /   O peration     | Version:  2406                                  |
|   \\  /    A nd           | Website:  www.openfoam.com                      |
|    \\/     M anipulation  |                                                 |
\*---------------------------------------------------------------------------*/
FoamFile
{
    version     2.0;
    format      ascii;
    arch        "LSB;label=32;scalar=64";
    class       polyBoundaryMesh;
    location    "constant/polyMesh";
    object      boundary;
}
// * * * * * * * * * * * * * * * * * * * * * * * * * * * * * * * * * * * * * //

7
(
    floor
    {
        type            wall;
        inGroups        1(wall);
        nFaces          400;
        startFace       11200;
    }
    ceiling
    {
        type            wall;
        inGroups        1(wall);
        nFaces          200;
        startFace       11600;
    }
    ceiling2
    {
        type            wall;
        inGroups        1(wall);
        nFaces          200;
        startFace       11800;
    }
    fixedWall1
    {
        type            wall;
        inGroups        1(wall);
        nFaces          200;
        startFace       12000;
    }
    fixedWall2
    {
        type            wall;
        inGroups        1(wall);
        nFaces          200;
        startFace       12200;
    }
    fixedWall3
    {
        type            wall;
        inGroups        1(wall);
        nFaces          200;
        startFace       12400;
    }
    fixedWall4
    {
        type            wall;
        inGroups        1(wall);
        nFaces          200;
        startFace       12600;
    }
)

// ************************************************************************* //
