/*--------------------------------*- C++ -*----------------------------------*\
| =========                 |                                                 |
| \\      /  F ield         | OpenFOAM: The Open Source CFD Toolbox           |
|  \\    /   O peration     | Version:  2406                                  |
|   \\  /    A nd           | Website:  www.openfoam.com                      |
|    \\/     M anipulation  |                                                 |
\*---------------------------------------------------------------------------*/
FoamFile
{
    version     2.0;
    format      binary;
    arch        "LSB;label=32;scalar=64";
    class       polyBoundaryMesh;
    location    "constant/polyMesh";
    object      boundary;
}
// * * * * * * * * * * * * * * * * * * * * * * * * * * * * * * * * * * * * * //

8
(
    inletSleeve
    {
        type            patch;
        inGroups        1(inlet);
        nFaces          192;
        startFace       51784;
    }
    outletSleeve
    {
        type            patch;
        inGroups        1(outlet);
        nFaces          192;
        startFace       51976;
    }
    inletPipe
    {
        type            patch;
        inGroups        1(inlet);
        nFaces          76;
        startFace       52168;
    }
    outletPipe
    {
        type            patch;
        inGroups        1(outlet);
        nFaces          76;
        startFace       52244;
    }
    wallSleeve
    {
        type            wall;
        inGroups        1(wall);
        nFaces          3376;
        startFace       52320;
    }
    wallPipe
    {
        type            wall;
        inGroups        1(wall);
        nFaces          1008;
        startFace       55696;
    }
    membranePipe
    {
        type            wall;
        inGroups        2(wall membrane);
        nFaces          960;
        startFace       56704;
    }
    membraneSleeve
    {
        type            wall;
        inGroups        2(wall membrane);
        nFaces          960;
        startFace       57664;
    }
)

// ************************************************************************* //
