/*--------------------------------*- C++ -*----------------------------------*\
| =========                 |                                                 |
| \\      /  F ield         | OpenFOAM: The Open Source CFD Toolbox           |
|  \\    /   O peration     | Version:  2406                                  |
|   \\  /    A nd           | Website:  www.openfoam.com                      |
|    \\/     M anipulation  |                                                 |
\*---------------------------------------------------------------------------*/
FoamFile
{
    version     2.0;
    format      ascii;
    arch        "LSB;label=32;scalar=64";
    class       polyBoundaryMesh;
    location    "constant/polyMesh";
    object      boundary;
}
// * * * * * * * * * * * * * * * * * * * * * * * * * * * * * * * * * * * * * //

10
(
    inlet
    {
        type            patch;
        nFaces          40;
        startFace       21464;
    }
    outlet
    {
        type            patch;
        nFaces          96;
        startFace       21504;
    }
    walls
    {
        type            wall;
        inGroups        1(wall);
        nFaces          272;
        startFace       21600;
    }
    cyclicMoving1
    {
        type            cyclic;
        inGroups        1(cyclic);
        nFaces          16;
        startFace       21872;
        matchTolerance  0.0001;
        transform       unknown;
        neighbourPatch  cyclicMoving2;
    }
    cyclicMoving2
    {
        type            cyclic;
        inGroups        1(cyclic);
        nFaces          16;
        startFace       21888;
        matchTolerance  0.0001;
        transform       unknown;
        neighbourPatch  cyclicMoving1;
    }
    cyclicStationary1
    {
        type            cyclic;
        inGroups        1(cyclic);
        nFaces          8;
        startFace       21904;
        matchTolerance  0.0001;
        transform       unknown;
        neighbourPatch  cyclicStationary2;
    }
    cyclicStationary2
    {
        type            cyclic;
        inGroups        1(cyclic);
        nFaces          8;
        startFace       21912;
        matchTolerance  0.0001;
        transform       unknown;
        neighbourPatch  cyclicStationary1;
    }
    ami1
    {
        type            cyclicPeriodicAMI;
        inGroups        1(cyclicAMI);
        nFaces          40;
        startFace       21920;
        matchTolerance  0.0001;
        transform       unknown;
        neighbourPatch  ami2;
        periodicPatch   cyclicMoving1;
        AMIMethod       faceAreaWeightAMI;
        requireMatch    0;
        restartUncoveredSourceFace 1;
    }
    ami2
    {
        type            cyclicPeriodicAMI;
        inGroups        1(cyclicAMI);
        nFaces          96;
        startFace       21960;
        matchTolerance  0.0001;
        transform       unknown;
        neighbourPatch  ami1;
        periodicPatch   cyclicMoving1;
        AMIMethod       faceAreaWeightAMI;
        requireMatch    0;
        restartUncoveredSourceFace 1;
    }
    defaultFaces
    {
        type            empty;
        inGroups        1(empty);
        nFaces          21760;
        startFace       22056;
    }
)

// ************************************************************************* //
