/*--------------------------------*- C++ -*----------------------------------*\
| =========                 |                                                 |
| \\      /  F ield         | OpenFOAM: The Open Source CFD Toolbox           |
|  \\    /   O peration     | Version:  2406                                  |
|   \\  /    A nd           | Website:  www.openfoam.com                      |
|    \\/     M anipulation  |                                                 |
\*---------------------------------------------------------------------------*/
FoamFile
{
    version     2.0;
    format      ascii;
    arch        "LSB;label=32;scalar=64";
    class       polyBoundaryMesh;
    location    "constant/polyMesh";
    object      boundary;
}
// * * * * * * * * * * * * * * * * * * * * * * * * * * * * * * * * * * * * * //

7
(
    side-01
    {
        type            patch;
        nFaces          225;
        startFace       165588;
    }
    side-02
    {
        type            patch;
        nFaces          225;
        startFace       165813;
    }
    side-03
    {
        type            patch;
        nFaces          600;
        startFace       166038;
    }
    side-04
    {
        type            patch;
        nFaces          600;
        startFace       166638;
    }
    side-05
    {
        type            patch;
        nFaces          600;
        startFace       167238;
    }
    side-06
    {
        type            patch;
        nFaces          600;
        startFace       167838;
    }
    metalSheet
    {
        type            wall;
        inGroups        1(wall);
        nFaces          3792;
        startFace       168438;
    }
)

// ************************************************************************* //
