/*--------------------------------*- C++ -*----------------------------------*\
| =========                 |                                                 |
| \\      /  F ield         | OpenFOAM: The Open Source CFD Toolbox           |
|  \\    /   O peration     | Version:  2406                                  |
|   \\  /    A nd           | Website:  www.openfoam.com                      |
|    \\/     M anipulation  |                                                 |
\*---------------------------------------------------------------------------*/
FoamFile
{
    version     2.0;
    format      binary;
    arch        "LSB;label=32;scalar=64";
    class       polyBoundaryMesh;
    location    "constant/polyMesh";
    object      boundary;
}
// * * * * * * * * * * * * * * * * * * * * * * * * * * * * * * * * * * * * * //

5
(
    top
    {
        type            wall;
        inGroups        1(wall);
        nFaces          450;
        startFace       179350;
    }
    bottom
    {
        type            wall;
        inGroups        1(wall);
        nFaces          450;
        startFace       179800;
    }
    left
    {
        type            patch;
        nFaces          200;
        startFace       180250;
    }
    right
    {
        type            patch;
        nFaces          200;
        startFace       180450;
    }
    frontAndBack
    {
        type            empty;
        inGroups        1(empty);
        nFaces          180000;
        startFace       180650;
    }
)

// ************************************************************************* //
