/*--------------------------------*- C++ -*----------------------------------*\
| =========                 |                                                 |
| \\      /  F ield         | OpenFOAM: The Open Source CFD Toolbox           |
|  \\    /   O peration     | Version:  2406                                  |
|   \\  /    A nd           | Website:  www.openfoam.com                      |
|    \\/     M anipulation  |                                                 |
\*---------------------------------------------------------------------------*/
FoamFile
{
    version     2.0;
    format      ascii;
    arch        "LSB;label=32;scalar=64";
    class       polyBoundaryMesh;
    location    "constant/polyMesh";
    object      boundary;
}
// * * * * * * * * * * * * * * * * * * * * * * * * * * * * * * * * * * * * * //

5
(
    lowerWall
    {
        type            wall;
        inGroups        1(wall);
        nFaces          1;
        startFace       79;
    }
    upperWall
    {
        type            wall;
        inGroups        1(wall);
        nFaces          1;
        startFace       80;
    }
    front
    {
        type            cyclic;
        inGroups        1(cyclic);
        nFaces          80;
        startFace       81;
        matchTolerance  0.0001;
        transform       unknown;
        neighbourPatch  back;
    }
    back
    {
        type            cyclic;
        inGroups        1(cyclic);
        nFaces          80;
        startFace       161;
        matchTolerance  0.0001;
        transform       unknown;
        neighbourPatch  front;
    }
    defaultFaces
    {
        type            empty;
        inGroups        1(empty);
        nFaces          160;
        startFace       241;
    }
)

// ************************************************************************* //
