/*--------------------------------*- C++ -*----------------------------------*\
| =========                 |                                                 |
| \\      /  F ield         | OpenFOAM: The Open Source CFD Toolbox           |
|  \\    /   O peration     | Version:  2406                                  |
|   \\  /    A nd           | Website:  www.openfoam.com                      |
|    \\/     M anipulation  |                                                 |
\*---------------------------------------------------------------------------*/
FoamFile
{
    version     2.0;
    format      ascii;
    arch        "LSB;label=32;scalar=64";
    class       polyBoundaryMesh;
    location    "constant/polyMesh";
    object      boundary;
}
// * * * * * * * * * * * * * * * * * * * * * * * * * * * * * * * * * * * * * //

4
(
    walls
    {
        type            wall;
        inGroups        1(wall);
        nFaces          20;
        startFace       180;
    }
    bottom
    {
        type            wall;
        inGroups        1(wall);
        nFaces          10;
        startFace       200;
    }
    top
    {
        type            mappedWall;
        inGroups        2(wall mappedPatch);
        nFaces          10;
        startFace       210;
        sampleMode      nearestPatchFace;
        sampleWorld     fluid;
        sampleRegion    region0;
        samplePatch     bottom;
        sampleDatabase  true;
    }
    frontAndBack
    {
        type            empty;
        inGroups        1(empty);
        nFaces          200;
        startFace       220;
    }
)

// ************************************************************************* //
