/*--------------------------------*- C++ -*----------------------------------*\
| =========                 |                                                 |
| \\      /  F ield         | OpenFOAM: The Open Source CFD Toolbox           |
|  \\    /   O peration     | Version:  2406                                  |
|   \\  /    A nd           | Website:  www.openfoam.com                      |
|    \\/     M anipulation  |                                                 |
\*---------------------------------------------------------------------------*/
FoamFile
{
    version     2.0;
    format      ascii;
    arch        "LSB;label=32;scalar=64";
    class       polyBoundaryMesh;
    location    "constant/polyMesh";
    object      boundary;
}
// * * * * * * * * * * * * * * * * * * * * * * * * * * * * * * * * * * * * * //

8
(
    inlet
    {
        type            patch;
        nFaces          40;
        startFace       21464;
    }
    outlet
    {
        type            patch;
        nFaces          96;
        startFace       21504;
    }
    walls
    {
        type            wall;
        inGroups        1(wall);
        nFaces          320;
        startFace       21600;
    }
    ACMI1_couple
    {
        type            cyclicACMI;
        inGroups        1(cyclicACMI);
        nFaces          40;
        startFace       21920;
        matchTolerance  0.0001;
        transform       unknown;
        neighbourPatch  ACMI2_couple;
        AMIMethod       faceAreaWeightAMI;
        requireMatch    0;
        restartUncoveredSourceFace 1;
        nonOverlapPatch ACMI1_blockage;
    }
    ACMI1_blockage
    {
        type            wall;
        inGroups        1(wall);
        nFaces          40;
        startFace       21960;
    }
    ACMI2_couple
    {
        type            cyclicACMI;
        inGroups        1(cyclicACMI);
        nFaces          96;
        startFace       22000;
        matchTolerance  0.0001;
        transform       unknown;
        neighbourPatch  ACMI1_couple;
        AMIMethod       faceAreaWeightAMI;
        requireMatch    0;
        restartUncoveredSourceFace 1;
        nonOverlapPatch ACMI2_blockage;
    }
    ACMI2_blockage
    {
        type            wall;
        inGroups        1(wall);
        nFaces          96;
        startFace       22096;
    }
    defaultFaces
    {
        type            empty;
        inGroups        1(empty);
        nFaces          21760;
        startFace       22192;
    }
)

// ************************************************************************* //
