/*--------------------------------*- C++ -*----------------------------------*\
| =========                 |                                                 |
| \\      /  F ield         | OpenFOAM: The Open Source CFD Toolbox           |
|  \\    /   O peration     | Version:  2406                                  |
|   \\  /    A nd           | Website:  www.openfoam.com                      |
|    \\/     M anipulation  |                                                 |
\*---------------------------------------------------------------------------*/
FoamFile
{
    version     2.0;
    format      ascii;
    arch        "LSB;label=32;scalar=64";
    class       polyBoundaryMesh;
    location    "constant/polyMesh";
    object      boundary;
}
// * * * * * * * * * * * * * * * * * * * * * * * * * * * * * * * * * * * * * //

5
(
    outerWall
    {
        type            wall;
        inGroups        1(wall);
        nFaces          225;
        startFace       7275;
    }
    axis
    {
        type            symmetryPlane;
        inGroups        1(symmetryPlane);
        nFaces          120;
        startFace       7500;
    }
    nozzle
    {
        type            patch;
        nFaces          5;
        startFace       7620;
    }
    back
    {
        type            empty;
        inGroups        1(empty);
        nFaces          3725;
        startFace       7625;
    }
    front
    {
        type            empty;
        inGroups        1(empty);
        nFaces          3725;
        startFace       11350;
    }
)

// ************************************************************************* //
