/*--------------------------------*- C++ -*----------------------------------*\
| =========                 |                                                 |
| \\      /  F ield         | OpenFOAM: The Open Source CFD Toolbox           |
|  \\    /   O peration     | Version:  2406                                  |
|   \\  /    A nd           | Website:  www.openfoam.com                      |
|    \\/     M anipulation  |                                                 |
\*---------------------------------------------------------------------------*/
FoamFile
{
    version     2.0;
    format      ascii;
    arch        "LSB;label=32;scalar=64";
    class       polyBoundaryMesh;
    location    "constant/polyMesh";
    object      boundary;
}
// * * * * * * * * * * * * * * * * * * * * * * * * * * * * * * * * * * * * * //

3
(
    stationaryWalls
    {
        type            wall;
        inGroups        1(wall);
        nFaces          2800;
        startFace       33146;
    }
    atmosphere
    {
        type            patch;
        nFaces          400;
        startFace       35946;
    }
    floatingObject
    {
        type            wall;
        inGroups        1(wall);
        nFaces          348;
        startFace       36346;
    }
)

// ************************************************************************* //
