/*--------------------------------*- C++ -*----------------------------------*\
| =========                 |                                                 |
| \\      /  F ield         | OpenFOAM: The Open Source CFD Toolbox           |
|  \\    /   O peration     | Version:  2406                                  |
|   \\  /    A nd           | Website:  www.openfoam.com                      |
|    \\/     M anipulation  |                                                 |
\*---------------------------------------------------------------------------*/
FoamFile
{
    version     2.0;
    format      binary;
    arch        "LSB;label=32;scalar=64";
    class       polyBoundaryMesh;
    location    "constant/polyMesh";
    object      boundary;
}
// * * * * * * * * * * * * * * * * * * * * * * * * * * * * * * * * * * * * * //

4
(
    inlet
    {
        type            patch;
        nFaces          144;
        startFace       196992;
    }
    outlet
    {
        type            patch;
        nFaces          144;
        startFace       197136;
    }
    walls
    {
        type            patch;
        nFaces          8864;
        startFace       197280;
    }
    atmosphere
    {
        type            patch;
        nFaces          1600;
        startFace       206144;
    }
)

// ************************************************************************* //
