/*--------------------------------*- C++ -*----------------------------------*\
| =========                 |                                                 |
| \\      /  F ield         | OpenFOAM: The Open Source CFD Toolbox           |
|  \\    /   O peration     | Version:  2406                                  |
|   \\  /    A nd           | Website:  www.openfoam.com                      |
|    \\/     M anipulation  |                                                 |
\*---------------------------------------------------------------------------*/
FoamFile
{
    version     2.0;
    format      ascii;
    arch        "LSB;label=32;scalar=64";
    class       polyBoundaryMesh;
    location    "constant/polyMesh";
    object      boundary;
}
// * * * * * * * * * * * * * * * * * * * * * * * * * * * * * * * * * * * * * //

7
(
    door
    {
        type            wall;
        inGroups        1(wall);
        nFaces          147;
        startFace       398234;
    }
    fan
    {
        type            wall;
        inGroups        1(wall);
        nFaces          1601;
        startFace       398381;
    }
    outlet
    {
        type            wall;
        inGroups        1(wall);
        nFaces          90;
        startFace       399982;
    }
    room
    {
        type            wall;
        inGroups        1(wall);
        nFaces          13511;
        startFace       400072;
    }
    desk
    {
        type            wall;
        inGroups        1(wall);
        nFaces          3408;
        startFace       413583;
    }
    AMI1
    {
        type            cyclicAMI;
        inGroups        1(cyclicAMI);
        nFaces          6984;
        startFace       416991;
        matchTolerance  0.0001;
        transform       noOrdering;
        neighbourPatch  AMI2;
        AMIMethod       faceAreaWeightAMI;
        restartUncoveredSourceFace 1;
    }
    AMI2
    {
        type            cyclicAMI;
        inGroups        1(cyclicAMI);
        nFaces          7096;
        startFace       423975;
        matchTolerance  0.0001;
        transform       noOrdering;
        neighbourPatch  AMI1;
        AMIMethod       faceAreaWeightAMI;
        restartUncoveredSourceFace 1;
    }
)

// ************************************************************************* //
