/*--------------------------------*- C++ -*----------------------------------*\
| =========                 |                                                 |
| \\      /  F ield         | OpenFOAM: The Open Source CFD Toolbox           |
|  \\    /   O peration     | Version:  2406                                  |
|   \\  /    A nd           | Website:  www.openfoam.com                      |
|    \\/     M anipulation  |                                                 |
\*---------------------------------------------------------------------------*/
FoamFile
{
    version     2.0;
    format      ascii;
    arch        "LSB;label=32;scalar=64";
    class       polyBoundaryMesh;
    location    "constant/polyMesh";
    object      boundary;
}
// * * * * * * * * * * * * * * * * * * * * * * * * * * * * * * * * * * * * * //

10
(
    inlet
    {
        type            patch;
        nFaces          38;
        startFace       28087;
    }
    outlet
    {
        type            patch;
        nFaces          38;
        startFace       28125;
    }
    ground1
    {
        type            wall;
        inGroups        1(wall);
        nFaces          250;
        startFace       28163;
    }
    ground2
    {
        type            wall;
        inGroups        1(wall);
        nFaces          125;
        startFace       28413;
    }
    top1
    {
        type            patch;
        nFaces          250;
        startFace       28538;
    }
    top2
    {
        type            patch;
        nFaces          125;
        startFace       28788;
    }
    front1
    {
        type            empty;
        inGroups        1(empty);
        nFaces          9500;
        startFace       28913;
    }
    back1
    {
        type            empty;
        inGroups        1(empty);
        nFaces          9500;
        startFace       38413;
    }
    front2
    {
        type            empty;
        inGroups        1(empty);
        nFaces          4750;
        startFace       47913;
    }
    back2
    {
        type            empty;
        inGroups        1(empty);
        nFaces          4750;
        startFace       52663;
    }
)

// ************************************************************************* //
