/*--------------------------------*- C++ -*----------------------------------*\
| =========                 |                                                 |
| \\      /  F ield         | OpenFOAM: The Open Source CFD Toolbox           |
|  \\    /   O peration     | Version:  2406                                  |
|   \\  /    A nd           | Website:  www.openfoam.com                      |
|    \\/     M anipulation  |                                                 |
\*---------------------------------------------------------------------------*/
FoamFile
{
    version     2.0;
    format      ascii;
    arch        "LSB;label=32;scalar=64";
    class       polyBoundaryMesh;
    location    "constant/polyMesh";
    object      boundary;
}
// * * * * * * * * * * * * * * * * * * * * * * * * * * * * * * * * * * * * * //

6
(
    inlet
    {
        type            patch;
        nFaces          300;
        startFace       312825;
    }
    outlet
    {
        type            patch;
        nFaces          300;
        startFace       313125;
    }
    ground
    {
        type            wall;
        inGroups        1(wall);
        nFaces          1875;
        startFace       313425;
    }
    top
    {
        type            patch;
        nFaces          1875;
        startFace       315300;
    }
    sides1
    {
        type            patch;
        nFaces          22500;
        startFace       317175;
    }
    sides2
    {
        type            patch;
        nFaces          22500;
        startFace       339675;
    }
)

// ************************************************************************* //
