/*--------------------------------*- C++ -*----------------------------------*\
| =========                 |                                                 |
| \\      /  F ield         | OpenFOAM: The Open Source CFD Toolbox           |
|  \\    /   O peration     | Version:  2406                                  |
|   \\  /    A nd           | Website:  www.openfoam.com                      |
|    \\/     M anipulation  |                                                 |
\*---------------------------------------------------------------------------*/
FoamFile
{
    version     2.0;
    format      binary;
    arch        "LSB;label=32;scalar=64";
    class       polyBoundaryMesh;
    location    "constant/polyMesh";
    object      boundary;
}
// * * * * * * * * * * * * * * * * * * * * * * * * * * * * * * * * * * * * * //

4
(
    inlet
    {
        type            patch;
        nFaces          510;
        startFace       4413730;
    }
    outlet
    {
        type            patch;
        nFaces          510;
        startFace       4414240;
    }
    walls
    {
        type            wall;
        inGroups        1(wall);
        nFaces          37840;
        startFace       4414750;
    }
    frontBack
    {
        type            wall;
        inGroups        1(wall);
        nFaces          57540;
        startFace       4452590;
    }
)

// ************************************************************************* //
