/*--------------------------------*- C++ -*----------------------------------*\
| =========                 |                                                 |
| \\      /  F ield         | OpenFOAM: The Open Source CFD Toolbox           |
|  \\    /   O peration     | Version:  2406                                  |
|   \\  /    A nd           | Website:  www.openfoam.com                      |
|    \\/     M anipulation  |                                                 |
\*---------------------------------------------------------------------------*/
FoamFile
{
    version     2.0;
    format      binary;
    arch        "LSB;label=32;scalar=64";
    class       polyBoundaryMesh;
    location    "constant/polyMesh";
    object      boundary;
}
// * * * * * * * * * * * * * * * * * * * * * * * * * * * * * * * * * * * * * //

5
(
    cube
    {
        type            wall;
        inGroups        1(wall);
        nFaces          8000;
        startFace       3608000;
    }
    topAndBottom
    {
        type            wall;
        inGroups        1(wall);
        nFaces          30400;
        startFace       3616000;
    }
    sides
    {
        type            patch;
        nFaces          25600;
        startFace       3646400;
    }
    inlet
    {
        type            patch;
        nFaces          8000;
        startFace       3672000;
    }
    outlet
    {
        type            patch;
        nFaces          8000;
        startFace       3680000;
    }
)

// ************************************************************************* //
