/*--------------------------------*- C++ -*----------------------------------*\
| =========                 |                                                 |
| \\      /  F ield         | OpenFOAM: The Open Source CFD Toolbox           |
|  \\    /   O peration     | Version:  2406                                  |
|   \\  /    A nd           | Website:  www.openfoam.com                      |
|    \\/     M anipulation  |                                                 |
\*---------------------------------------------------------------------------*/
FoamFile
{
    version     2.0;
    format      binary;
    arch        "LSB;label=32;scalar=64";
    class       polyBoundaryMesh;
    location    "constant/polyMesh";
    object      boundary;
}
// * * * * * * * * * * * * * * * * * * * * * * * * * * * * * * * * * * * * * //

3
(
    rim
    {
        type            patch;
        nFaces          400;
        startFace       41806;
    }
    front
    {
        type            empty;
        inGroups        1(empty);
        nFaces          20860;
        startFace       42206;
    }
    back
    {
        type            empty;
        inGroups        1(empty);
        nFaces          20860;
        startFace       63066;
    }
)

// ************************************************************************* //
