/*--------------------------------*- C++ -*----------------------------------*\
| =========                 |                                                 |
| \\      /  F ield         | OpenFOAM: The Open Source CFD Toolbox           |
|  \\    /   O peration     | Version:  2406                                  |
|   \\  /    A nd           | Website:  www.openfoam.com                      |
|    \\/     M anipulation  |                                                 |
\*---------------------------------------------------------------------------*/
FoamFile
{
    version     2.0;
    format      ascii;
    arch        "LSB;label=32;scalar=64";
    class       polyBoundaryMesh;
    location    "constant/polyMesh";
    object      boundary;
}
// * * * * * * * * * * * * * * * * * * * * * * * * * * * * * * * * * * * * * //

3
(
    rim
    {
        type            patch;
        nFaces          400;
        startFace       19800;
    }
    front
    {
        type            empty;
        inGroups        1(empty);
        nFaces          10000;
        startFace       20200;
    }
    back
    {
        type            empty;
        inGroups        1(empty);
        nFaces          10000;
        startFace       30200;
    }
)

// ************************************************************************* //
