/*--------------------------------*- C++ -*----------------------------------*\
| =========                 |                                                 |
| \\      /  F ield         | OpenFOAM: The Open Source CFD Toolbox           |
|  \\    /   O peration     | Version:  2406                                  |
|   \\  /    A nd           | Website:  www.openfoam.com                      |
|    \\/     M anipulation  |                                                 |
\*---------------------------------------------------------------------------*/
FoamFile
{
    version     2.0;
    format      ascii;
    arch        "LSB;label=32;scalar=64";
    class       polyBoundaryMesh;
    location    "constant/polyMesh";
    object      boundary;
}
// * * * * * * * * * * * * * * * * * * * * * * * * * * * * * * * * * * * * * //

5
(
    left
    {
        type            patch;
        nFaces          1176;
        startFace       1209124;
    }
    right
    {
        type            patch;
        nFaces          1176;
        startFace       1210300;
    }
    ground
    {
        type            wall;
        inGroups        1(wall);
        nFaces          9800;
        startFace       1211476;
    }
    top
    {
        type            patch;
        nFaces          9800;
        startFace       1221276;
    }
    sides
    {
        type            patch;
        nFaces          29400;
        startFace       1231076;
    }
)

// ************************************************************************* //
