/*--------------------------------*- C++ -*----------------------------------*\
| =========                 |                                                 |
| \\      /  F ield         | OpenFOAM: The Open Source CFD Toolbox           |
|  \\    /   O peration     | Version:  2406                                  |
|   \\  /    A nd           | Website:  www.openfoam.com                      |
|    \\/     M anipulation  |                                                 |
\*---------------------------------------------------------------------------*/
FoamFile
{
    version     2.0;
    format      ascii;
    arch        "LSB;label=32;scalar=64";
    class       polyBoundaryMesh;
    location    "constant/polyMesh";
    object      boundary;
}
// * * * * * * * * * * * * * * * * * * * * * * * * * * * * * * * * * * * * * //


5
(
    floor
    {
        type            wall;
        inGroups        1 ( wall );
        nFaces          50;
        startFace       3910;
    }

    ceiling
    {
        type            mappedWall;
        inGroups        1 ( wall );
        nFaces          50;
        startFace       3960;
        sampleMode      nearestPatchFace;
        samplePatch     bottom;
        sampleRegion    baffle3DRegion;
        coupleGroup     ceiling_baffle;
        offsetMode      uniform;
        offset          ( 0 0 0 );
    }

    inlet
    {
        type            wall;
        inGroups        1 ( wall );
        nFaces          40;
        startFace       4010;
    }

    outlet
    {
        type            wall;
        inGroups        1 ( wall );
        nFaces          40;
        startFace       4050;
    }

    fixedWalls
    {
        type            empty;
        inGroups        1 ( empty );
        nFaces          4000;
        startFace       4090;
    }

)


// ************************************************************************* //
