/*--------------------------------*- C++ -*----------------------------------*\
| =========                 |                                                 |
| \\      /  F ield         | OpenFOAM: The Open Source CFD Toolbox           |
|  \\    /   O peration     | Version:  2406                                  |
|   \\  /    A nd           | Website:  www.openfoam.com                      |
|    \\/     M anipulation  |                                                 |
\*---------------------------------------------------------------------------*/
FoamFile
{
    version     2.0;
    format      ascii;
    arch        "LSB;label=32;scalar=64";
    class       polyBoundaryMesh;
    location    "constant/polyMesh";
    object      boundary;
}
// * * * * * * * * * * * * * * * * * * * * * * * * * * * * * * * * * * * * * //

5
(
    inlet
    {
        type            mappedPatch;
        inGroups        1(mappedPatch);
        nFaces          30;
        startFace       27238;
        sampleMode      nearestCell;
        sampleRegion    region0;
        offsetMode      uniform;
        offset          (0.0495 0 0);
    }
    outlet
    {
        type            patch;
        nFaces          57;
        startFace       27268;
    }
    upperWall
    {
        type            wall;
        inGroups        1(wall);
        nFaces          275;
        startFace       27325;
    }
    lowerWall
    {
        type            wall;
        inGroups        1(wall);
        nFaces          302;
        startFace       27600;
    }
    frontAndBack
    {
        type            empty;
        inGroups        1(empty);
        nFaces          27570;
        startFace       27902;
    }
)

// ************************************************************************* //
