/*--------------------------------*- C++ -*----------------------------------*\
| =========                 |                                                 |
| \\      /  F ield         | OpenFOAM: The Open Source CFD Toolbox           |
|  \\    /   O peration     | Version:  2406                                  |
|   \\  /    A nd           | Website:  www.openfoam.com                      |
|    \\/     M anipulation  |                                                 |
\*---------------------------------------------------------------------------*/
FoamFile
{
    version     2.0;
    format      ascii;
    arch        "LSB;label=32;scalar=64";
    class       polyBoundaryMesh;
    location    "constant/polyMesh";
    object      boundary;
}
// * * * * * * * * * * * * * * * * * * * * * * * * * * * * * * * * * * * * * //

5
(
    inlet
    {
        type            patch;
        nFaces          70;
        startFace       104180;
    }
    outlet
    {
        type            patch;
        nFaces          70;
        startFace       104250;
    }
    ground
    {
        type            wall;
        inGroups        1(wall);
        nFaces          750;
        startFace       104320;
    }
    top
    {
        type            patch;
        nFaces          750;
        startFace       105070;
    }
    sides
    {
        type            empty;
        inGroups        1(empty);
        nFaces          105000;
        startFace       105820;
    }
)

// ************************************************************************* //
