/*--------------------------------*- C++ -*----------------------------------*\
| =========                 |                                                 |
| \\      /  F ield         | OpenFOAM: The Open Source CFD Toolbox           |
|  \\    /   O peration     | Version:  2406                                  |
|   \\  /    A nd           | Website:  www.openfoam.com                      |
|    \\/     M anipulation  |                                                 |
\*---------------------------------------------------------------------------*/
FoamFile
{
    version     2.0;
    format      binary;
    arch        "LSB;label=32;scalar=64";
    class       polyBoundaryMesh;
    location    "constant/polyMesh";
    object      boundary;
}
// * * * * * * * * * * * * * * * * * * * * * * * * * * * * * * * * * * * * * //

7
(
    inlet_air
    {
        type            patch;
        nFaces          120;
        startFace       214250;
    }
    inlet_fuel
    {
        type            patch;
        nFaces          74;
        startFace       214370;
    }
    outlet
    {
        type            patch;
        nFaces          461;
        startFace       214444;
    }
    inlet_entrainment
    {
        type            patch;
        nFaces          389;
        startFace       214905;
    }
    walls_pipe_air
    {
        type            wall;
        inGroups        1(wall);
        nFaces          3520;
        startFace       215294;
    }
    walls_pipe_fuel
    {
        type            wall;
        inGroups        1(wall);
        nFaces          712;
        startFace       218814;
    }
    walls_pipe_main
    {
        type            wall;
        inGroups        1(wall);
        nFaces          8688;
        startFace       219526;
    }
)

// ************************************************************************* //
