/*--------------------------------*- C++ -*----------------------------------*\
| =========                 |                                                 |
| \\      /  F ield         | OpenFOAM: The Open Source CFD Toolbox           |
|  \\    /   O peration     | Version:  2406                                  |
|   \\  /    A nd           | Website:  www.openfoam.com                      |
|    \\/     M anipulation  |                                                 |
\*---------------------------------------------------------------------------*/
FoamFile
{
    version     2.0;
    format      binary;
    arch        "LSB;label=32;scalar=64";
    class       polyBoundaryMesh;
    location    "constant/polyMesh";
    object      boundary;
}
// * * * * * * * * * * * * * * * * * * * * * * * * * * * * * * * * * * * * * //

6
(
    cone
    {
        type            patch;
        nFaces          255;
        startFace       64388;
    }
    outlet
    {
        type            patch;
        nFaces          127;
        startFace       64643;
    }
    freestream
    {
        type            patch;
        nFaces          255;
        startFace       64770;
    }
    centreLeft
    {
        type            symmetry;
        inGroups        1(symmetry);
        nFaces          0;
        startFace       65025;
    }
    wedge1
    {
        type            patch;
        nFaces          32385;
        startFace       65025;
    }
    wedge2
    {
        type            patch;
        nFaces          32385;
        startFace       97410;
    }
)

// ************************************************************************* //
