/*--------------------------------*- C++ -*----------------------------------*\
| =========                 |                                                 |
| \\      /  F ield         | OpenFOAM: The Open Source CFD Toolbox           |
|  \\    /   O peration     | Version:  2406                                  |
|   \\  /    A nd           | Website:  www.openfoam.com                      |
|    \\/     M anipulation  |                                                 |
\*---------------------------------------------------------------------------*/
FoamFile
{
    version     2.0;
    format      ascii;
    arch        "LSB;label=32;scalar=64";
    class       polyBoundaryMesh;
    location    "constant/polyMesh";
    object      boundary;
}
// * * * * * * * * * * * * * * * * * * * * * * * * * * * * * * * * * * * * * //

7
(
    bottom
    {
        type            symmetry;
        inGroups        1(symmetry);
        nFaces          60;
        startFace       3890;
    }
    outlet
    {
        type            patch;
        nFaces          30;
        startFace       3950;
    }
    side
    {
        type            patch;
        nFaces          60;
        startFace       3980;
    }
    inlet
    {
        type            patch;
        nFaces          30;
        startFace       4040;
    }
    cylinder
    {
        type            wall;
        inGroups        1(wall);
        nFaces          40;
        startFace       4070;
    }
    film
    {
        type            patch;
        nFaces          2000;
        startFace       4110;
    }
    top
    {
        type            patch;
        nFaces          2000;
        startFace       6110;
    }
)

// ************************************************************************* //
