/*--------------------------------*- C++ -*----------------------------------*\
| =========                 |                                                 |
| \\      /  F ield         | OpenFOAM: The Open Source CFD Toolbox           |
|  \\    /   O peration     | Version:  2406                                  |
|   \\  /    A nd           | Website:  www.openfoam.com                      |
|    \\/     M anipulation  |                                                 |
\*---------------------------------------------------------------------------*/
FoamFile
{
    version     2.0;
    format      binary;
    arch        "LSB;label=32;scalar=64";
    class       polyBoundaryMesh;
    location    "constant/polyMesh";
    object      boundary;
}
// * * * * * * * * * * * * * * * * * * * * * * * * * * * * * * * * * * * * * //

4
(
    box
    {
        type            wall;
        inGroups        1(wall);
        nFaces          300;
        startFace       303675;
    }
    floor
    {
        type            wall;
        inGroups        1(wall);
        nFaces          5125;
        startFace       303975;
    }
    ceiling
    {
        type            wall;
        inGroups        1(wall);
        nFaces          5225;
        startFace       309100;
    }
    fixedWalls
    {
        type            wall;
        inGroups        1(wall);
        nFaces          6000;
        startFace       314325;
    }
)

// ************************************************************************* //
