/*--------------------------------*- C++ -*----------------------------------*\
| =========                 |                                                 |
| \\      /  F ield         | OpenFOAM: The Open Source CFD Toolbox           |
|  \\    /   O peration     | Version:  2406                                  |
|   \\  /    A nd           | Website:  www.openfoam.com                      |
|    \\/     M anipulation  |                                                 |
\*---------------------------------------------------------------------------*/
FoamFile
{
    version     2.0;
    format      ascii;
    arch        "LSB;label=32;scalar=64";
    class       polyBoundaryMesh;
    location    "constant/polyMesh";
    object      boundary;
}
// * * * * * * * * * * * * * * * * * * * * * * * * * * * * * * * * * * * * * //

73
(
    front
    {
        type            symmetryPlane;
        inGroups        1(symmetryPlane);
        nFaces          160;
        startFace       9735193;
    }
    back
    {
        type            symmetryPlane;
        inGroups        1(symmetryPlane);
        nFaces          160;
        startFace       9735353;
    }
    inlet
    {
        type            patch;
        nFaces          64;
        startFace       9735513;
    }
    outlet
    {
        type            patch;
        nFaces          64;
        startFace       9735577;
    }
    lowerWall
    {
        type            wall;
        inGroups        1(wall);
        nFaces          15322;
        startFace       9735641;
    }
    upperWall
    {
        type            symmetryPlane;
        inGroups        1(symmetryPlane);
        nFaces          160;
        startFace       9750963;
    }
    motorBike_frt-fairing:001%1
    {
        type            wall;
        inGroups        1(wall);
        nFaces          90962;
        startFace       9751123;
    }
    motorBike_windshield:002%2
    {
        type            wall;
        inGroups        1(wall);
        nFaces          401;
        startFace       9842085;
    }
    motorBike_rr-wh-rim:005%5
    {
        type            wall;
        inGroups        1(wall);
        nFaces          2391;
        startFace       9842486;
    }
    motorBike_rr-wh-rim:010%10
    {
        type            wall;
        inGroups        1(wall);
        nFaces          5395;
        startFace       9844877;
    }
    motorBike_fr-wh-rim:011%11
    {
        type            wall;
        inGroups        1(wall);
        nFaces          7325;
        startFace       9850272;
    }
    motorBike_fr-wh-brake-disk:012%12
    {
        type            wall;
        inGroups        1(wall);
        nFaces          961;
        startFace       9857597;
    }
    motorBike_frame:016-shadow%13
    {
        type            wall;
        inGroups        1(wall);
        nFaces          1726;
        startFace       9858558;
    }
    motorBike_rear-susp:014%14
    {
        type            wall;
        inGroups        1(wall);
        nFaces          14936;
        startFace       9860284;
    }
    motorBike_rear-susp:014-shadow%15
    {
        type            wall;
        inGroups        1(wall);
        nFaces          8504;
        startFace       9875220;
    }
    motorBike_frame:016%16
    {
        type            wall;
        inGroups        1(wall);
        nFaces          946;
        startFace       9883724;
    }
    motorBike_rr-wh-rim:005-shadow%17
    {
        type            wall;
        inGroups        1(wall);
        nFaces          1259;
        startFace       9884670;
    }
    motorBike_rr-wh-chain-hub:022%22
    {
        type            wall;
        inGroups        1(wall);
        nFaces          1825;
        startFace       9885929;
    }
    motorBike_rearseat%24
    {
        type            wall;
        inGroups        1(wall);
        nFaces          3401;
        startFace       9887754;
    }
    motorBike_frt-fairing%25
    {
        type            wall;
        inGroups        1(wall);
        nFaces          5563;
        startFace       9891155;
    }
    motorBike_windshield%26
    {
        type            wall;
        inGroups        1(wall);
        nFaces          6573;
        startFace       9896718;
    }
    motorBike_headlights%27
    {
        type            wall;
        inGroups        1(wall);
        nFaces          545;
        startFace       9903291;
    }
    motorBike_driversseat%28
    {
        type            wall;
        inGroups        1(wall);
        nFaces          5280;
        startFace       9903836;
    }
    motorBike_rear-body%29
    {
        type            wall;
        inGroups        1(wall);
        nFaces          13845;
        startFace       9909116;
    }
    motorBike_fuel-tank%30
    {
        type            wall;
        inGroups        1(wall);
        nFaces          6647;
        startFace       9922961;
    }
    motorBike_exhaust%31
    {
        type            wall;
        inGroups        1(wall);
        nFaces          23089;
        startFace       9929608;
    }
    motorBike_rr-wh-rim%32
    {
        type            wall;
        inGroups        1(wall);
        nFaces          11179;
        startFace       9952697;
    }
    motorBike_fr-mud-guard%33
    {
        type            wall;
        inGroups        1(wall);
        nFaces          14012;
        startFace       9963876;
    }
    motorBike_fr-wh-rim%34
    {
        type            wall;
        inGroups        1(wall);
        nFaces          6815;
        startFace       9977888;
    }
    motorBike_fr-wh-brake-disk%35
    {
        type            wall;
        inGroups        1(wall);
        nFaces          7427;
        startFace       9984703;
    }
    motorBike_fr-brake-caliper%36
    {
        type            wall;
        inGroups        1(wall);
        nFaces          2239;
        startFace       9992130;
    }
    motorBike_fr-wh-tyre%37
    {
        type            wall;
        inGroups        1(wall);
        nFaces          11022;
        startFace       9994369;
    }
    motorBike_hbars%38
    {
        type            wall;
        inGroups        1(wall);
        nFaces          7599;
        startFace       10005391;
    }
    motorBike_fr-forks%39
    {
        type            wall;
        inGroups        1(wall);
        nFaces          11079;
        startFace       10012990;
    }
    motorBike_chain%40
    {
        type            wall;
        inGroups        1(wall);
        nFaces          7168;
        startFace       10024069;
    }
    motorBike_rr-wh-tyre%41
    {
        type            wall;
        inGroups        1(wall);
        nFaces          8170;
        startFace       10031237;
    }
    motorBike_square-dial%42
    {
        type            wall;
        inGroups        1(wall);
        nFaces          80;
        startFace       10039407;
    }
    motorBike_round-dial%43
    {
        type            wall;
        inGroups        1(wall);
        nFaces          170;
        startFace       10039487;
    }
    motorBike_dial-holder%44
    {
        type            wall;
        inGroups        1(wall);
        nFaces          1339;
        startFace       10039657;
    }
    motorBike_rear-susp%45
    {
        type            wall;
        inGroups        1(wall);
        nFaces          26334;
        startFace       10040996;
    }
    motorBike_rear-brake-lights%46
    {
        type            wall;
        inGroups        1(wall);
        nFaces          851;
        startFace       10067330;
    }
    motorBike_rear-light-bracket%47
    {
        type            wall;
        inGroups        1(wall);
        nFaces          2019;
        startFace       10068181;
    }
    motorBike_frame%48
    {
        type            wall;
        inGroups        1(wall);
        nFaces          21692;
        startFace       10070200;
    }
    motorBike_rear-mud-guard%49
    {
        type            wall;
        inGroups        1(wall);
        nFaces          10737;
        startFace       10091892;
    }
    motorBike_rear-susp-spring-damp%50
    {
        type            wall;
        inGroups        1(wall);
        nFaces          1796;
        startFace       10102629;
    }
    motorBike_fairing-inner-plate%51
    {
        type            wall;
        inGroups        1(wall);
        nFaces          4969;
        startFace       10104425;
    }
    motorBike_clutch-housing%52
    {
        type            wall;
        inGroups        1(wall);
        nFaces          8510;
        startFace       10109394;
    }
    motorBike_radiator%53
    {
        type            wall;
        inGroups        1(wall);
        nFaces          1871;
        startFace       10117904;
    }
    motorBike_water-pipe%54
    {
        type            wall;
        inGroups        1(wall);
        nFaces          1179;
        startFace       10119775;
    }
    motorBike_water-pump%55
    {
        type            wall;
        inGroups        1(wall);
        nFaces          995;
        startFace       10120954;
    }
    motorBike_engine%56
    {
        type            wall;
        inGroups        1(wall);
        nFaces          19609;
        startFace       10121949;
    }
    motorBike_rear-shock-link%57
    {
        type            wall;
        inGroups        1(wall);
        nFaces          518;
        startFace       10141558;
    }
    motorBike_rear-brake-fluid-pot-bracket%58
    {
        type            wall;
        inGroups        1(wall);
        nFaces          706;
        startFace       10142076;
    }
    motorBike_rear-brake-fluid-pot%59
    {
        type            wall;
        inGroups        1(wall);
        nFaces          795;
        startFace       10142782;
    }
    motorBike_footpeg%60
    {
        type            wall;
        inGroups        1(wall);
        nFaces          1408;
        startFace       10143577;
    }
    motorBike_rr-wh-chain-hub%61
    {
        type            wall;
        inGroups        1(wall);
        nFaces          1980;
        startFace       10144985;
    }
    motorBike_rear-brake-caliper%62
    {
        type            wall;
        inGroups        1(wall);
        nFaces          2128;
        startFace       10146965;
    }
    motorBike_rider-helmet%65
    {
        type            wall;
        inGroups        1(wall);
        nFaces          2381;
        startFace       10149093;
    }
    motorBike_rider-visor%66
    {
        type            wall;
        inGroups        1(wall);
        nFaces          171;
        startFace       10151474;
    }
    motorBike_rider-boots%67
    {
        type            wall;
        inGroups        1(wall);
        nFaces          5688;
        startFace       10151645;
    }
    motorBike_rider-gloves%68
    {
        type            wall;
        inGroups        1(wall);
        nFaces          3259;
        startFace       10157333;
    }
    motorBike_rider-body%69
    {
        type            wall;
        inGroups        1(wall);
        nFaces          24212;
        startFace       10160592;
    }
    motorBike_frame:0%70
    {
        type            wall;
        inGroups        1(wall);
        nFaces          406;
        startFace       10184804;
    }
    motorBike_frt-fairing:001-shadow%74
    {
        type            wall;
        inGroups        1(wall);
        nFaces          56898;
        startFace       10185210;
    }
    motorBike_windshield-shadow%75
    {
        type            wall;
        inGroups        1(wall);
        nFaces          4550;
        startFace       10242108;
    }
    motorBike_fr-mud-guard-shadow%81
    {
        type            wall;
        inGroups        1(wall);
        nFaces          9188;
        startFace       10246658;
    }
    motorBike_fr-wh-brake-disk-shadow%83
    {
        type            wall;
        inGroups        1(wall);
        nFaces          3867;
        startFace       10255846;
    }
    motorBike_rear-mud-guard-shadow%84
    {
        type            wall;
        inGroups        1(wall);
        nFaces          6729;
        startFace       10259713;
    }
    motorBike_rear-susp-spring-damp-shadow%85
    {
        type            wall;
        inGroups        1(wall);
        nFaces          1144;
        startFace       10266442;
    }
    motorBike_radiator-shadow%86
    {
        type            wall;
        inGroups        1(wall);
        nFaces          1044;
        startFace       10267586;
    }
    motorBike_rear-shock-link-shadow%87
    {
        type            wall;
        inGroups        1(wall);
        nFaces          351;
        startFace       10268630;
    }
    motorBike_rear-brake-fluid-pot-bracket-shadow%88
    {
        type            wall;
        inGroups        1(wall);
        nFaces          432;
        startFace       10268981;
    }
    motorBike_rr-wh-chain-hub-shadow%89
    {
        type            wall;
        inGroups        1(wall);
        nFaces          1091;
        startFace       10269413;
    }
)

// ************************************************************************* //
