/*--------------------------------*- C++ -*----------------------------------*\
| =========                 |                                                 |
| \\      /  F ield         | OpenFOAM: The Open Source CFD Toolbox           |
|  \\    /   O peration     | Version:  2406                                  |
|   \\  /    A nd           | Website:  www.openfoam.com                      |
|    \\/     M anipulation  |                                                 |
\*---------------------------------------------------------------------------*/
FoamFile
{
    version     2.0;
    format      ascii;
    arch        "LSB;label=32;scalar=64";
    class       polyBoundaryMesh;
    location    "constant/polyMesh";
    object      boundary;
}
// * * * * * * * * * * * * * * * * * * * * * * * * * * * * * * * * * * * * * //

4
(
    inlet
    {
        type            patch;
        nFaces          20;
        startFace       15580;
    }
    atmosphere
    {
        type            patch;
        nFaces          20;
        startFace       15600;
    }
    walls
    {
        type            wall;
        inGroups        1(wall);
        nFaces          800;
        startFace       15620;
    }
    frontAndBack
    {
        type            empty;
        inGroups        1(empty);
        nFaces          16000;
        startFace       16420;
    }
)

// ************************************************************************* //
