/*--------------------------------*- C++ -*----------------------------------*\
| =========                 |                                                 |
| \\      /  F ield         | OpenFOAM: The Open Source CFD Toolbox           |
|  \\    /   O peration     | Version:  2406                                  |
|   \\  /    A nd           | Website:  www.openfoam.com                      |
|    \\/     M anipulation  |                                                 |
\*---------------------------------------------------------------------------*/
FoamFile
{
    version     2.0;
    format      ascii;
    arch        "LSB;label=32;scalar=64";
    class       polyBoundaryMesh;
    location    "constant/polyMesh";
    object      boundary;
}
// * * * * * * * * * * * * * * * * * * * * * * * * * * * * * * * * * * * * * //

5
(
    inlet
    {
        type            patch;
        nFaces          36;
        startFace       3494;
    }
    walls
    {
        type            wall;
        inGroups        1(wall);
        nFaces          94;
        startFace       3530;
    }
    outlet
    {
        type            patch;
        nFaces          12;
        startFace       3624;
    }
    centreline
    {
        type            symmetryPlane;
        inGroups        1(symmetryPlane);
        nFaces          70;
        startFace       3636;
    }
    frontAndBack
    {
        type            empty;
        inGroups        1(empty);
        nFaces          3600;
        startFace       3706;
    }
)

// ************************************************************************* //
