/*--------------------------------*- C++ -*----------------------------------*\
| =========                 |                                                 |
| \\      /  F ield         | OpenFOAM: The Open Source CFD Toolbox           |
|  \\    /   O peration     | Version:  2406                                  |
|   \\  /    A nd           | Website:  www.openfoam.com                      |
|    \\/     M anipulation  |                                                 |
\*---------------------------------------------------------------------------*/
FoamFile
{
    version     2.0;
    format      ascii;
    arch        "LSB;label=32;scalar=64";
    class       polyBoundaryMesh;
    location    "constant/polyMesh";
    object      boundary;
}
// * * * * * * * * * * * * * * * * * * * * * * * * * * * * * * * * * * * * * //

7
(
    bottom1
    {
        type            wall;
        inGroups        1(wall);
        nFaces          200;
        startFace       111460;
    }
    bottom2
    {
        type            wall;
        inGroups        1(wall);
        nFaces          200;
        startFace       111660;
    }
    front
    {
        type            empty;
        inGroups        1(empty);
        nFaces          56000;
        startFace       111860;
    }
    back
    {
        type            empty;
        inGroups        1(empty);
        nFaces          56000;
        startFace       167860;
    }
    leftwall
    {
        type            patch;
        nFaces          140;
        startFace       223860;
    }
    rightwall
    {
        type            patch;
        nFaces          140;
        startFace       224000;
    }
    top
    {
        type            wall;
        inGroups        1(wall);
        nFaces          400;
        startFace       224140;
    }
)

// ************************************************************************* //
